Version 4
SHEET 1 1020 680
WIRE 208 -560 0 -560
WIRE 464 -560 208 -560
WIRE 768 -560 464 -560
WIRE 208 -512 208 -560
WIRE 768 -496 768 -560
WIRE 464 -480 464 -560
WIRE 464 -480 368 -480
WIRE 304 -432 208 -432
WIRE 464 -416 464 -480
WIRE 368 -368 368 -384
WIRE 400 -368 368 -368
WIRE 208 -352 208 -432
WIRE 464 -288 464 -320
WIRE 0 -272 0 -560
WIRE 464 -176 464 -208
WIRE 592 -176 464 -176
WIRE 656 -176 592 -176
WIRE 768 -176 768 -416
WIRE 768 -176 736 -176
WIRE 928 -176 768 -176
WIRE 464 -96 464 -176
WIRE 208 0 208 -32
WIRE 272 0 208 0
WIRE 464 16 464 -16
WIRE 928 16 928 -176
WIRE -160 48 -208 48
WIRE -48 48 -96 48
WIRE 0 48 0 -192
WIRE 0 48 -48 48
WIRE 144 48 0 48
WIRE 400 64 368 64
WIRE 272 112 272 0
WIRE 304 112 272 112
WIRE 0 160 0 48
WIRE 208 160 208 96
WIRE 464 160 464 112
WIRE 464 160 368 160
WIRE -208 176 -208 48
WIRE 768 224 768 -176
WIRE 208 272 208 240
WIRE 208 272 96 272
WIRE 208 288 208 272
WIRE 96 304 96 272
WIRE -208 400 -208 256
WIRE 0 400 0 240
WIRE 0 400 -208 400
WIRE 96 400 96 368
WIRE 96 400 0 400
WIRE 208 400 208 368
WIRE 208 400 96 400
WIRE 464 400 464 160
WIRE 464 400 208 400
WIRE 768 400 768 304
WIRE 768 400 464 400
FLAG -48 48 Vin
FLAG 592 -176 Vout
FLAG 928 16 0
SYMBOL res 192 144 R0
SYMATTR InstName Re1
SYMATTR Value 50
SYMBOL res 192 272 R0
SYMATTR InstName Re2
SYMATTR Value 30
SYMBOL npn 144 0 R0
SYMATTR InstName T5
SYMBOL diode 192 -96 R0
SYMATTR InstName D1
SYMBOL diode 192 -160 R0
SYMATTR InstName D2
SYMBOL diode 192 -224 R0
SYMATTR InstName D3
SYMBOL diode 192 -288 R0
SYMATTR InstName D4
SYMBOL diode 192 -352 R0
SYMATTR InstName D5
SYMBOL res 192 -528 R0
SYMATTR InstName Rc
SYMATTR Value 1062
SYMBOL npn 400 -416 R0
SYMATTR InstName T1
SYMBOL res 448 -304 R0
SYMATTR InstName Rs1
SYMATTR Value 0.1
SYMBOL res 448 -112 R0
SYMATTR InstName Rs2
SYMATTR Value 0.1
SYMBOL res 752 -192 R90
WINDOW 0 0 56 VBottom 2
WINDOW 3 32 56 VTop 2
SYMATTR InstName Rl
SYMATTR Value 4
SYMBOL pnp 400 112 M180
SYMATTR InstName T3
SYMBOL cap 80 304 R0
SYMATTR InstName Ce
SYMATTR Value 10µ
SYMBOL res -16 -288 R0
SYMATTR InstName R1
SYMATTR Value 53900
SYMBOL res -16 144 R0
SYMATTR InstName R2
SYMATTR Value 2700
SYMBOL voltage 768 -512 R0
WINDOW 123 0 0 Left 0
WINDOW 39 0 0 Left 0
SYMATTR InstName V1
SYMATTR Value 28.3
SYMBOL voltage 768 320 R180
WINDOW 0 24 96 Left 2
WINDOW 3 24 16 Left 2
WINDOW 123 0 0 Left 0
WINDOW 39 0 0 Left 0
SYMATTR InstName V2
SYMATTR Value -28.3
SYMBOL voltage -208 160 R0
WINDOW 3 24 44 Left 2
WINDOW 123 0 0 Left 0
WINDOW 39 0 0 Left 0
SYMATTR Value AC 1
SYMATTR InstName AC1
SYMBOL npn 304 -480 R0
SYMATTR InstName T2
SYMBOL pnp 304 160 M180
SYMATTR InstName T4
SYMBOL cap -96 32 R90
WINDOW 0 0 32 VBottom 2
WINDOW 3 32 32 VTop 2
SYMATTR InstName C1
SYMATTR Value 10µ
TEXT -248 432 Left 2 !.ac dec 20m 10 1000000
